Version 4
SHEET 1 1072 680
WIRE -464 -656 -640 -656
WIRE -272 -656 -464 -656
WIRE -240 -656 -272 -656
WIRE -112 -656 -160 -656
WIRE 64 -656 -112 -656
WIRE 208 -656 128 -656
WIRE 272 -656 208 -656
WIRE 384 -656 336 -656
WIRE 464 -656 384 -656
WIRE 560 -656 528 -656
WIRE 592 -656 560 -656
WIRE 704 -656 672 -656
WIRE 848 -656 704 -656
WIRE 992 -656 848 -656
WIRE 384 -640 384 -656
WIRE -640 -624 -640 -656
WIRE 992 -624 992 -656
WIRE 384 -560 384 -576
WIRE 560 -560 560 -656
WIRE 704 -560 704 -656
WIRE -640 -512 -640 -544
WIRE 992 -480 992 -544
WIRE 208 -464 208 -656
WIRE 272 -464 208 -464
WIRE 384 -464 384 -480
WIRE 384 -464 336 -464
WIRE 560 -464 560 -496
WIRE 560 -464 384 -464
WIRE 560 -432 560 -464
WIRE 208 -416 208 -464
WIRE 208 -336 208 -352
WIRE -272 -304 -272 -656
WIRE -112 -304 -112 -656
WIRE 560 -272 560 -368
WIRE 704 -272 704 -496
WIRE -464 -240 -464 -656
WIRE -352 -240 -464 -240
WIRE -16 -240 -32 -240
WIRE 208 -240 208 -256
WIRE -352 -144 -464 -144
WIRE 112 -144 -32 -144
WIRE 224 -144 112 -144
WIRE 848 -144 848 -656
WIRE 848 -144 304 -144
WIRE -352 -48 -400 -48
WIRE 0 -48 -32 -48
WIRE -96 32 -96 16
WIRE 112 32 112 -144
WIRE -400 64 -400 -48
WIRE -288 80 -288 16
WIRE -96 128 -96 112
WIRE -464 208 -464 -144
WIRE -400 208 -400 144
WIRE -400 208 -464 208
WIRE -288 208 -288 144
WIRE -288 208 -400 208
WIRE -192 208 -192 16
WIRE -192 208 -288 208
WIRE -96 208 -96 192
WIRE -96 208 -192 208
WIRE 0 208 0 -48
WIRE 0 208 -96 208
WIRE 112 208 112 112
WIRE 112 208 0 208
WIRE -192 224 -192 208
FLAG 208 -240 0
FLAG 560 -272 0
FLAG 704 -272 0
FLAG -192 224 0
FLAG 48 -240 0
FLAG -640 -512 0
FLAG 992 -480 0
SYMBOL PowerProducts\\LT8365 -192 -144 R0
SYMATTR InstName U1
SYMBOL ind -256 -640 R270
WINDOW 0 32 56 VTop 2
WINDOW 3 5 56 VBottom 2
SYMATTR InstName L1
SYMATTR Value 10µ
SYMATTR SpiceLine Ipk=1.5 Rser=0.215 Rpar=6445.9 Cpar=6.04p mfg="Würth Elektronik" pn="74437324100 WE-LHMI 4020"
SYMBOL cap 128 -672 R90
WINDOW 0 0 32 VBottom 2
WINDOW 3 32 32 VTop 2
SYMATTR InstName C1
SYMATTR Value 0.1µ
SYMATTR SpiceLine V=200 Irms=835m Rser=0.0936732 Lser=0 mfg="KEMET" pn="C1812C104K2RAC" type="X7R"
SYMBOL cap 336 -672 R90
WINDOW 0 0 32 VBottom 2
WINDOW 3 32 32 VTop 2
SYMATTR InstName C2
SYMATTR Value 0.1µ
SYMATTR SpiceLine V=200 Irms=835m Rser=0.0936732 Lser=0 mfg="KEMET" pn="C1812C104K2RAC" type="X7R"
SYMBOL res 192 -352 R0
SYMATTR InstName R1
SYMATTR Value 20
SYMATTR SpiceLine tol=1 pwr=0.1
SYMBOL res 368 -576 R0
SYMATTR InstName R2
SYMATTR Value 20
SYMATTR SpiceLine tol=1 pwr=0.1
SYMBOL schottky 464 -672 M90
WINDOW 0 0 32 VBottom 2
WINDOW 3 32 32 VTop 2
SYMATTR InstName D4
SYMATTR Value MBRS1100
SYMATTR Description Diode
SYMATTR Type diode
SYMBOL cap 544 -560 R0
SYMATTR InstName C3
SYMATTR Value 0.22µ
SYMATTR SpiceLine V=100 Irms=1.59 Rser=0.0526491 Lser=0 mfg="KEMET" pn="C2225C224K1RAC" type="X7R"
SYMBOL cap 544 -432 R0
SYMATTR InstName C4
SYMATTR Value 0.22µ
SYMATTR SpiceLine V=100 Irms=1.59 Rser=0.0526491 Lser=0 mfg="KEMET" pn="C2225C224K1RAC" type="X7R"
SYMBOL res 688 -672 R90
WINDOW 0 0 56 VBottom 2
WINDOW 3 32 56 VTop 2
SYMATTR InstName R3
SYMATTR Value 47
SYMATTR SpiceLine tol=1 pwr=.5
SYMBOL cap 688 -560 R0
SYMATTR InstName C5
SYMATTR Value 0.1µ
SYMATTR SpiceLine V=250 Irms=0 Rser=0.03 Lser=1.025n mfg="Würth Elektronik" pn="885382208007 WCAP-CSST 1206" type="X7R"
SYMBOL res -112 16 R0
SYMATTR InstName R4
SYMATTR Value 44.2k
SYMATTR SpiceLine tol=1 pwr=.1
SYMBOL cap -304 80 R0
SYMATTR InstName C7
SYMATTR Value 0.12µ
SYMATTR SpiceLine V=25 Irms=0 Rser=0 Lser=0 mfg="Murata" pn="GCM188R71E124KA37" type="X7R"
SYMBOL res -416 48 R0
SYMATTR InstName R5
SYMATTR Value 107k
SYMATTR SpiceLine tol=1 pwr=.1
SYMBOL res 320 -160 R90
WINDOW 0 0 56 VBottom 2
WINDOW 3 32 56 VTop 2
SYMATTR InstName R6
SYMATTR Value 1Meg
SYMATTR SpiceLine tol=1 pwr=0.25
SYMBOL res 96 128 M180
WINDOW 0 36 76 Left 2
WINDOW 3 36 40 Left 2
SYMATTR InstName R7
SYMATTR Value 13.5k
SYMATTR SpiceLine tol=1 pwr=.1
SYMBOL cap 48 -256 R90
WINDOW 0 0 32 VBottom 2
WINDOW 3 32 32 VTop 2
SYMATTR InstName C8
SYMATTR Value 1µ
SYMATTR SpiceLine V=25 Irms=0 Rser=0.014 Lser=1000p mfg="Würth Elektronik" pn="885012210012 WCAP-CSGP 1812" type="X7R"
SYMBOL voltage -640 -640 R0
WINDOW 123 0 0 Left 0
WINDOW 39 0 0 Left 0
SYMATTR InstName V1
SYMATTR Value 24
SYMBOL cap -112 128 R0
SYMATTR InstName C6
SYMATTR Value 0.0018µ
SYMATTR SpiceLine V=25 Irms=104m Rser=1.59196 Lser=0 mfg="KEMET" pn="C1206C182K3RAC" type="X7R"
SYMBOL res 976 -640 R0
SYMATTR InstName R8
SYMATTR Value 4k
SYMBOL schottky 192 -352 M180
WINDOW 0 24 64 Left 2
WINDOW 3 24 0 Left 2
SYMATTR InstName D1
SYMATTR Value MBRS1100
SYMATTR Description Diode
SYMATTR Type diode
SYMBOL schottky 272 -480 M90
WINDOW 0 0 32 VBottom 2
WINDOW 3 32 32 VTop 2
SYMATTR InstName D2
SYMATTR Value MBRS1100
SYMATTR Description Diode
SYMATTR Type diode
SYMBOL schottky 368 -576 M180
WINDOW 0 24 64 Left 2
WINDOW 3 24 0 Left 2
SYMATTR InstName D3
SYMATTR Value MBRS1100
SYMATTR Description Diode
SYMATTR Type diode
TEXT -672 248 Left 2 !.tran 0.02 startup
