Version 4
SHEET 1 1636 728
WIRE 48 -496 -96 -496
WIRE 176 -496 112 -496
WIRE 304 -496 176 -496
WIRE 432 -496 304 -496
WIRE 448 -496 432 -496
WIRE -96 -448 -96 -496
WIRE 176 -432 176 -496
WIRE 432 -432 432 -496
WIRE 304 -416 304 -496
WIRE -1296 -288 -1408 -288
WIRE -1168 -288 -1296 -288
WIRE -1008 -288 -1168 -288
WIRE -512 -288 -1008 -288
WIRE -272 -288 -512 -288
WIRE -96 -288 -96 -368
WIRE 176 -288 176 -352
WIRE 176 -288 -96 -288
WIRE 304 -288 304 -352
WIRE 304 -288 176 -288
WIRE -1408 -256 -1408 -288
WIRE -1296 -240 -1296 -288
WIRE -1168 -240 -1168 -288
WIRE -512 -240 -512 -288
WIRE -272 -208 -272 -288
WIRE 176 -192 176 -288
WIRE 432 -192 432 -352
WIRE 432 -192 176 -192
WIRE 560 -192 432 -192
WIRE -1408 -144 -1408 -176
WIRE -1296 -144 -1296 -176
WIRE -1296 -144 -1408 -144
WIRE -1168 -144 -1168 -176
WIRE -1168 -144 -1296 -144
WIRE -1296 -128 -1296 -144
WIRE -512 -128 -512 -176
WIRE 48 -128 -96 -128
WIRE 176 -128 176 -192
WIRE 176 -128 112 -128
WIRE 304 -128 176 -128
WIRE 304 -96 304 -128
WIRE 432 -96 432 -192
WIRE -96 -64 -96 -128
WIRE 176 -64 176 -128
WIRE -1008 -16 -1008 -288
WIRE -912 -16 -1008 -16
WIRE -512 -16 -512 -48
WIRE -512 -16 -688 -16
WIRE -272 -16 -272 -128
WIRE -272 -16 -512 -16
WIRE -1008 80 -1008 -16
WIRE -912 80 -1008 80
WIRE -624 80 -688 80
WIRE -512 80 -512 -16
WIRE -512 80 -544 80
WIRE -96 80 -96 16
WIRE 176 80 176 16
WIRE 176 80 -96 80
WIRE 304 80 304 -32
WIRE 304 80 176 80
WIRE 432 80 432 -16
WIRE 432 80 304 80
WIRE 464 80 432 80
WIRE -912 176 -944 176
WIRE -608 176 -688 176
WIRE -480 176 -608 176
WIRE -608 192 -608 176
WIRE -480 192 -480 176
WIRE -1008 272 -1008 176
WIRE -912 272 -1008 272
WIRE -608 304 -608 272
WIRE -544 304 -608 304
WIRE -480 304 -480 256
WIRE -480 304 -544 304
WIRE -1008 320 -1008 272
WIRE -544 336 -544 304
FLAG -1296 -128 0
FLAG -1008 320 0
FLAG -544 336 0
FLAG 560 -192 0
SYMBOL voltage -1408 -272 R0
WINDOW 123 0 0 Left 0
WINDOW 39 0 0 Left 0
SYMATTR InstName V1
SYMATTR Value 24
SYMBOL polcap -1312 -240 R0
WINDOW 3 24 56 Left 2
SYMATTR Value 330µ
SYMATTR InstName C4
SYMATTR Description Capacitor
SYMATTR Type cap
SYMATTR SpiceLine V=50 Irms=1.404 Rser=0.084 Lser=4.3n mfg="Würth Elektronik" pn="860160675028 WCAP-ATLL 10x25" type="Al electrolytic"
SYMBOL ind2 -288 -224 R0
SYMATTR InstName L1
SYMATTR Value 12µ
SYMBOL schottky 48 -112 R270
WINDOW 0 32 32 VTop 2
WINDOW 3 0 32 VBottom 2
SYMATTR InstName D1
SYMATTR Value MBR20100CT
SYMATTR Description Diode
SYMATTR Type diode
SYMBOL res 160 -80 R0
SYMATTR InstName R9
SYMATTR Value 18K
SYMATTR SpiceLine tol=1 pwr=0.1
SYMBOL schottky 48 -480 R270
WINDOW 0 32 32 VTop 2
WINDOW 3 0 32 VBottom 2
SYMATTR InstName D2
SYMATTR Value MBRS1100
SYMATTR Description Diode
SYMATTR Type diode
SYMBOL res 160 -448 R0
SYMATTR InstName R10
SYMATTR Value 18K
SYMATTR SpiceLine tol=1 pwr=0.1
SYMBOL cap 288 -416 R0
SYMATTR InstName C8
SYMATTR Value 1µ
SYMATTR SpiceLine V=100 Irms=0 Rser=0.003 Lser=1.2n
SYMBOL cap -1184 -240 R0
SYMATTR InstName C3
SYMATTR Value 1µ
SYMATTR SpiceLine V=50 Irms=0 Rser=0.0115 Lser=800p mfg="Würth Elektronik" pn="885012206126 WCAP-CSGP 0603" type="X7R"
SYMBOL cap 288 -96 R0
SYMATTR InstName C7
SYMATTR Value 1µ
SYMATTR SpiceLine V=100 Irms=0 Rser=0.003 Lser=1.2n
SYMBOL PowerProducts\\LT8304 -800 128 R0
SYMATTR InstName U1
SYMBOL res -528 -144 R0
SYMATTR InstName R1
SYMATTR Value 100
SYMBOL res -528 64 R90
WINDOW 0 0 56 VBottom 2
WINDOW 3 32 56 VTop 2
SYMATTR InstName R2
SYMATTR Value 250k
SYMBOL cap -528 -240 R0
SYMATTR InstName C1
SYMATTR Value 270p
SYMBOL res -624 176 R0
SYMATTR InstName R3
SYMATTR Value 10k
SYMBOL cap -496 192 R0
SYMATTR InstName C2
SYMATTR Value 10p
SYMBOL cap -944 160 R90
WINDOW 0 0 32 VBottom 2
WINDOW 3 32 32 VTop 2
SYMATTR InstName C5
SYMATTR Value 1µ
SYMBOL ind2 -80 -352 R180
WINDOW 0 36 80 Left 2
WINDOW 3 36 40 Left 2
SYMATTR InstName L2
SYMATTR Value 192
SYMATTR Type ind
SYMBOL ind2 -80 32 R180
WINDOW 0 36 80 Left 2
WINDOW 3 36 40 Left 2
SYMATTR InstName L3
SYMATTR Value 192
SYMATTR Type ind
SYMBOL res 416 -448 R0
SYMATTR InstName R4
SYMATTR Value 1k
SYMBOL res 416 -112 R0
SYMATTR InstName R5
SYMATTR Value 1k
TEXT -288 -520 Left 2 !K1 L1 L2 L3  1
TEXT -1312 568 Left 2 !.tran 0.05 uic
TEXT -1392 -872 Left 2 ;In case of missing symbols edit the search path in Tools -> Setting -> Search Paths\nAdditional symbols and libraries are in Workbench\\High Voltage Bipolar Power Supply\\sim\\lib
TEXT -272 -576 Left 2 ;750313975
LINE Normal -192 32 -192 -464
LINE Normal -176 32 -176 -464
