Version 4
SHEET 1 1636 728
WIRE -48 -592 -80 -592
WIRE 64 -592 16 -592
WIRE 208 -592 144 -592
WIRE -80 -496 -80 -592
WIRE -80 -496 -96 -496
WIRE -48 -496 -80 -496
WIRE 80 -496 16 -496
WIRE 208 -496 208 -592
WIRE 208 -496 80 -496
WIRE 352 -496 208 -496
WIRE 80 -432 80 -496
WIRE 208 -416 208 -496
WIRE -96 -368 -96 -416
WIRE -1296 -288 -1408 -288
WIRE -1168 -288 -1296 -288
WIRE -1008 -288 -1168 -288
WIRE -512 -288 -1008 -288
WIRE -272 -288 -512 -288
WIRE 80 -288 80 -352
WIRE 80 -288 -96 -288
WIRE 208 -288 208 -352
WIRE 208 -288 80 -288
WIRE -1408 -256 -1408 -288
WIRE -1296 -240 -1296 -288
WIRE -1168 -240 -1168 -288
WIRE -512 -240 -512 -288
WIRE -272 -224 -272 -288
WIRE 80 -192 80 -288
WIRE 464 -192 80 -192
WIRE -1408 -144 -1408 -176
WIRE -1296 -144 -1296 -176
WIRE -1296 -144 -1408 -144
WIRE -1168 -144 -1168 -176
WIRE -1168 -144 -1296 -144
WIRE -1296 -128 -1296 -144
WIRE -512 -128 -512 -176
WIRE -48 -128 -96 -128
WIRE 80 -128 80 -192
WIRE 80 -128 16 -128
WIRE 208 -128 80 -128
WIRE 208 -96 208 -128
WIRE 80 -64 80 -128
WIRE -1008 -16 -1008 -288
WIRE -912 -16 -1008 -16
WIRE -512 -16 -512 -48
WIRE -512 -16 -688 -16
WIRE -272 -16 -272 -144
WIRE -272 -16 -512 -16
WIRE -96 0 -96 -48
WIRE -1008 80 -1008 -16
WIRE -912 80 -1008 80
WIRE -624 80 -688 80
WIRE -512 80 -512 -16
WIRE -512 80 -544 80
WIRE 80 80 80 16
WIRE 80 80 -96 80
WIRE 208 80 208 -32
WIRE 208 80 80 80
WIRE 368 80 208 80
WIRE -912 176 -944 176
WIRE -608 176 -688 176
WIRE -480 176 -608 176
WIRE -608 192 -608 176
WIRE -480 192 -480 176
WIRE -1008 272 -1008 176
WIRE -912 272 -1008 272
WIRE -608 304 -608 272
WIRE -544 304 -608 304
WIRE -480 304 -480 256
WIRE -480 304 -544 304
WIRE -1008 320 -1008 272
WIRE -544 336 -544 304
FLAG -1296 -128 0
FLAG -1008 320 0
FLAG -544 336 0
FLAG 464 -192 0
SYMBOL voltage -1408 -272 R0
WINDOW 123 0 0 Left 0
WINDOW 39 0 0 Left 0
SYMATTR InstName V1
SYMATTR Value 24
SYMBOL polcap -1312 -240 R0
WINDOW 3 24 56 Left 2
SYMATTR Value 330µ
SYMATTR InstName C4
SYMATTR Description Capacitor
SYMATTR Type cap
SYMATTR SpiceLine V=50 Irms=1.404 Rser=0.084 Lser=4.3n mfg="Würth Elektronik" pn="860160675028 WCAP-ATLL 10x25" type="Al electrolytic"
SYMBOL ind2 -288 -128 M180
WINDOW 0 36 80 Left 2
WINDOW 3 36 40 Left 2
SYMATTR InstName L1
SYMATTR Value 12µ
SYMATTR SpiceLine Ipk=1.96
SYMBOL ind2 -80 -512 M0
SYMATTR InstName L3
SYMATTR Value 12µ
SYMATTR SpiceLine Ipk=1.96
SYMBOL ind2 -80 -384 M0
SYMATTR InstName L4
SYMATTR Value 12µ
SYMATTR SpiceLine Ipk=1.96
SYMBOL ind2 -80 -144 M0
SYMATTR InstName L5
SYMATTR Value 12µ
SYMATTR SpiceLine Ipk=1.96
SYMBOL ind2 -80 -16 M0
SYMATTR InstName L6
SYMATTR Value 12µ
SYMATTR SpiceLine Ipk=1.96
SYMBOL diode -48 -112 R270
WINDOW 0 32 32 VTop 2
WINDOW 3 0 32 VBottom 2
SYMATTR InstName D1
SYMATTR Value MURS120
SYMBOL res 64 -80 R0
SYMATTR InstName R9
SYMATTR Value 18K
SYMATTR SpiceLine tol=1 pwr=0.1
SYMBOL diode -48 -480 R270
WINDOW 0 32 32 VTop 2
WINDOW 3 0 32 VBottom 2
SYMATTR InstName D2
SYMATTR Value MURS120
SYMBOL res 64 -448 R0
SYMATTR InstName R10
SYMATTR Value 18K
SYMATTR SpiceLine tol=1 pwr=0.1
SYMBOL cap 192 -416 R0
SYMATTR InstName C8
SYMATTR Value 1µ
SYMATTR SpiceLine V=100 Irms=0 Rser=0.003 Lser=1.2n
SYMBOL cap 16 -608 R90
WINDOW 0 0 32 VBottom 2
WINDOW 3 32 32 VTop 2
SYMATTR InstName C9
SYMATTR Value 0.22µ
SYMATTR SpiceLine V=100 Irms=3.14 Rser=0.0342671 Lser=0 mfg="KEMET" pn="C1210F224K1RAC" type="X7R"
SYMBOL res 160 -608 R90
WINDOW 0 0 56 VBottom 2
WINDOW 3 32 56 VTop 2
SYMATTR InstName R11
SYMATTR Value 47
SYMATTR SpiceLine tol=1 pwr=0.1
SYMBOL cap -1184 -240 R0
SYMATTR InstName C3
SYMATTR Value 1µ
SYMATTR SpiceLine V=50 Irms=0 Rser=0.0115 Lser=800p mfg="Würth Elektronik" pn="885012206126 WCAP-CSGP 0603" type="X7R"
SYMBOL cap 192 -96 R0
SYMATTR InstName C7
SYMATTR Value 1µ
SYMATTR SpiceLine V=100 Irms=0 Rser=0.003 Lser=1.2n
SYMBOL PowerProducts\\LT8304 -800 128 R0
SYMATTR InstName U1
SYMBOL res -528 -144 R0
SYMATTR InstName R1
SYMATTR Value 100
SYMBOL res -528 64 R90
WINDOW 0 0 56 VBottom 2
WINDOW 3 32 56 VTop 2
SYMATTR InstName R2
SYMATTR Value 400k
SYMBOL cap -528 -240 R0
SYMATTR InstName C1
SYMATTR Value 270p
SYMBOL res -624 176 R0
SYMATTR InstName R3
SYMATTR Value 10k
SYMBOL cap -496 192 R0
SYMATTR InstName C2
SYMATTR Value 10p
SYMBOL cap -944 160 R90
WINDOW 0 0 32 VBottom 2
WINDOW 3 32 32 VTop 2
SYMATTR InstName C5
SYMATTR Value 1µ
TEXT -344 -528 Left 2 !K1 L1 L3 L4 L5 L6 1
TEXT -1312 568 Left 2 !.tran 0.1 uic
TEXT -1392 -872 Left 2 ;In case of missing symbols edit the search path in Tools -> Setting -> Search Paths\nAdditional symbols and libraries are in Workbench\\High Voltage Bipolar Power Supply\\sim\\lib
TEXT -376 -624 Left 2 ;VPH5-0083-R 1:1:1:1:1:1
LINE Normal -192 32 -192 -464
LINE Normal -176 32 -176 -464
